LTspice 26.0.1 for Windows
Circuit: Z:\home\daniel\git\electroai-hackathon\baseline-solution\simulations\01-codex-full-wave-bridge-rectifier.cir
Start Time: Fri Apr 10 03:34:54 2026
solver = Normal
Maximum thread count: 14
tnom = 27
temp = 27
method = trap
.OP point found by inspection.
.OP point found by inspection.
Total elapsed time: 0.046 seconds.

Files loaded:
Z:\home\daniel\git\electroai-hackathon\baseline-solution\simulations\01-codex-full-wave-bridge-rectifier.cir

